test_cases/cigre_B4_case39_two_areas_genmix.m
%%%%%%%%%%%%%%%%%%%%%%%%%%%%%%%%%%%%%%%%%%%%%%%%%%%%%%%%%%%%%%%%%%%%%%%%%%%%%%%%%%%%%%%%%%%
%%%%                                                                  			 	  %%%%%
%%%%    IEEE PES Power Grid Library - Optimal Power Flow with HVDC Lines - vXX.XX     %%%%%
%%%%          (https://github.com/power-grid-lib/pglib-opf-hvdc)      				  %%%%%
%%%%               Benchmark Group - Typical Operations               				  %%%%%
%%%%                         DD - Month - YYY                       				  %%%%%
%%%%                                                                  				  %%%%%
%%%%%%%%%%%%%%%%%%%%%%%%%%%%%%%%%%%%%%%%%%%%%%%%%%%%%%%%%%%%%%%%%%%%%%%%%%%%%%%%%%%%%%%%%%%
%
%   AC/DC grid OPF test case based on: CIGRÉ 
%
%   Transcribed by Oscar Damanik (oscar.damanik@kuleuven.be) from [1]
%	- Assumptions on the converter parameters will be provided	
%
%	References:
%	[1] T. K. Vrana, Y. Yang, D. Jovcic, S. Dennetière, J. Hardini, and H. Saad,
%	“The CIGRE B4 DC Grid Test System,” vol. 270, pp. 10–19, Oct. 2013.
%
% 
%   Copyright (c) 2023 
%   Licensed under the Creative Commons Attribution 4.0
%   International license, http://creativecommons.org/licenses/by/4.0/
%
% Offshore load connected to bus 10 is removed and replaced with another offshore wind farm with a capacity of 500
% Onshore loads are increased to balance out the new offshore wind farm installation

function mpc = cigreb4dc
mpc.version = '2';
mpc.baseMVA = 100.0;
mpc.variant = 'base'

%% bus data
%	bus_i	type		Pd		Qd		  Gs	 Bs	   area		Vm	   Va		   baseKV	zone	  Vmax			 Vmin
mpc.bus = [
	1	3	0	0	0	0	1	1	0	380	1	1.1	0.9	;
	2	2	0	0	0	0	1	1	0	380	1	1.1	0.9	;
	3	3	0	0	0	0	1	1	0	380	2	1.1	0.9	;
	4	2	0	0	0	0	1	1	0	380	2	1.1	0.9	;
	5	2	0	0	0	0	1	1	0	380	2	1.1	0.9	;
	6	2	0	0	0	0	1	1	0	380	2	1.1	0.9	;
	7	2	0	0	0	0	1	1	0	380	3	1.1	0.9	;
	8	2	0	0	0	0	1	1	0	380	3	1.1	0.9	;
	9	2	0	0	0	0	1	1	0	380	3	1.1	0.9	;
	10	2	0	0	0	0	1	1	0	380	3	1.1	0.9	;
	11	2	0	0	0	0	1	1	0	380	3	1.1	0.9	;
	101	 1	 97.6	 44.2	 0.0	 0.0	 2	    1.00000	    0.00000	 345.0	 1	    1.06000	    0.94000;
	102	 1	 0.0	 0.0	 0.0	 0.0	 2	    1.00000	    0.00000	 345.0	 1	    1.06000	    0.94000;
	103	 1	 322.0	 2.4	 0.0	 0.0	 2	    1.00000	    0.00000	 345.0	 1	    1.06000	    0.94000;
	104	 1	 500.0	 184.0	 0.0	 0.0	 1	    1.00000	    0.00000	 345.0	 1	    1.06000	    0.94000;
	105	 1	 0.0	 0.0	 0.0	 0.0	 1	    1.00000	    0.00000	 345.0	 1	    1.06000	    0.94000;
	106	 1	 0.0	 0.0	 0.0	 0.0	 1	    1.00000	    0.00000	 345.0	 1	    1.06000	    0.94000;
	107	 1	 233.8	 84.0	 0.0	 0.0	 1	    1.00000	    0.00000	 345.0	 1	    1.06000	    0.94000;
	108	 1	 522.0	 176.6	 0.0	 0.0	 1	    1.00000	    0.00000	 345.0	 1	    1.06000	    0.94000;
	109	 1	 6.5	 -66.6	 0.0	 0.0	 1	    1.00000	    0.00000	 345.0	 1	    1.06000	    0.94000;
	110	 1	 0.0	 0.0	 0.0	 0.0	 1	    1.00000	    0.00000	 345.0	 1	    1.06000	    0.94000;
	111	 1	 0.0	 0.0	 0.0	 0.0	 1	    1.00000	    0.00000	 345.0	 1	    1.06000	    0.94000;
	112	 1	 8.53	 88.0	 0.0	 0.0	 1	    1.00000	    0.00000	 345.0	 1	    1.06000	    0.94000;
	113	 1	 0.0	 0.0	 0.0	 0.0	 1	    1.00000	    0.00000	 345.0	 1	    1.06000	    0.94000;
	114	 1	 0.0	 0.0	 0.0	 0.0	 1	    1.00000	    0.00000	 345.0	 1	    1.06000	    0.94000;
	115	 1	 320.0	 153.0	 0.0	 0.0	 3	    1.00000	    0.00000	 345.0	 1	    1.06000	    0.94000;
	116	 1	 329.0	 32.3	 0.0	 0.0	 3	    1.00000	    0.00000	 345.0	 1	    1.06000	    0.94000;
	117	 1	 0.0	 0.0	 0.0	 0.0	 2	    1.00000	    0.00000	 345.0	 1	    1.06000	    0.94000;
	118	 1	 158.0	 30.0	 0.0	 0.0	 2	    1.00000	    0.00000	 345.0	 1	    1.06000	    0.94000;
	119	 1	 0.0	 0.0	 0.0	 0.0	 3	    1.00000	    0.00000	 345.0	 1	    1.06000	    0.94000;
	120	 1	 680.0	 103.0	 0.0	 0.0	 3	    1.00000	    0.00000	 345.0	 1	    1.06000	    0.94000;
	121	 1	 274.0	 115.0	 0.0	 0.0	 3	    1.00000	    0.00000	 345.0	 1	    1.06000	    0.94000;
	122	 1	 0.0	 0.0	 0.0	 0.0	 3	    1.00000	    0.00000	 345.0	 1	    1.06000	    0.94000;
	123	 1	 247.5	 84.6	 0.0	 0.0	 3	    1.00000	    0.00000	 345.0	 1	    1.06000	    0.94000;
	124	 1	 308.6	 -92.2	 0.0	 0.0	 3	    1.00000	    0.00000	 345.0	 1	    1.06000	    0.94000;
	125	 1	 224.0	 47.2	 0.0	 0.0	 2	    1.00000	    0.00000	 345.0	 1	    1.06000	    0.94000;
	126	 1	 139.0	 17.0	 0.0	 0.0	 2	    1.00000	    0.00000	 345.0	 1	    1.06000	    0.94000;
	127	 1	 281.0	 75.5	 0.0	 0.0	 2	    1.00000	    0.00000	 345.0	 1	    1.06000	    0.94000;
	128	 1	 206.0	 27.6	 0.0	 0.0	 3	    1.00000	    0.00000	 345.0	 1	    1.06000	    0.94000;
	129	 1	 283.5	 26.9	 0.0	 0.0	 3	    1.00000	    0.00000	 345.0	 1	    1.06000	    0.94000;
	130	 2	 0.0	 0.0	 0.0	 0.0	 2	    1.00000	    0.00000	 345.0	 1	    1.06000	    0.94000;
	131	 3	 9.2	 4.6	 0.0	 0.0	 1	    1.00000	    0.00000	 345.0	 1	    1.06000	    0.94000;
	132	 2	 0.0	 0.0	 0.0	 0.0	 1	    1.00000	    0.00000	 345.0	 1	    1.06000	    0.94000;
	133	 2	 0.0	 0.0	 0.0	 0.0	 3	    1.00000	    0.00000	 345.0	 1	    1.06000	    0.94000;
	134	 2	 0.0	 0.0	 0.0	 0.0	 3	    1.00000	    0.00000	 345.0	 1	    1.06000	    0.94000;
	135	 2	 0.0	 0.0	 0.0	 0.0	 3	    1.00000	    0.00000	 345.0	 1	    1.06000	    0.94000;
	136	 2	 0.0	 0.0	 0.0	 0.0	 3	    1.00000	    0.00000	 345.0	 1	    1.06000	    0.94000;
	137	 2	 0.0	 0.0	 0.0	 0.0	 2	    1.00000	    0.00000	 345.0	 1	    1.06000	    0.94000;
	138	 2	 0.0	 0.0	 0.0	 0.0	 3	    1.00000	    0.00000	 345.0	 1	    1.06000	    0.94000;
	139	 2	 1104.0	 250.0	 0.0	 0.0	 1	    1.00000	    0.00000	 345.0	 1	    1.06000	    0.94000;
	201	 1	 97.6	 44.2	 0.0	 0.0	 2	    1.00000	    0.00000	 345.0	 2	    1.06000	    0.94000;
	202	 1	 0.0	 0.0	 0.0	 0.0	 2	    1.00000	    0.00000	 345.0	 2	    1.06000	    0.94000;
	203	 1	 322.0	 2.4	 0.0	 0.0	 2	    1.00000	    0.00000	 345.0	 2	    1.06000	    0.94000;
	204	 1	 500.0	 184.0	 0.0	 0.0	 1	    1.00000	    0.00000	 345.0	 2	    1.06000	    0.94000;
	205	 1	 0.0	 0.0	 0.0	 0.0	 1	    1.00000	    0.00000	 345.0	 2	    1.06000	    0.94000;
	206	 1	 0.0	 0.0	 0.0	 0.0	 1	    1.00000	    0.00000	 345.0	 2	    1.06000	    0.94000;
	207	 1	 233.8	 84.0	 0.0	 0.0	 1	    1.00000	    0.00000	 345.0	 2	    1.06000	    0.94000;
	208	 1	 522.0	 176.6	 0.0	 0.0	 1	    1.00000	    0.00000	 345.0	 2	    1.06000	    0.94000;
	209	 1	 6.5	 -66.6	 0.0	 0.0	 1	    1.00000	    0.00000	 345.0	 2	    1.06000	    0.94000;
	210	 1	 0.0	 0.0	 0.0	 0.0	 1	    1.00000	    0.00000	 345.0	 2	    1.06000	    0.94000;
	211	 1	 0.0	 0.0	 0.0	 0.0	 1	    1.00000	    0.00000	 345.0	 2	    1.06000	    0.94000;
	212	 1	 8.53	 88.0	 0.0	 0.0	 1	    1.00000	    0.00000	 345.0	 2	    1.06000	    0.94000;
	213	 1	 0.0	 0.0	 0.0	 0.0	 1	    1.00000	    0.00000	 345.0	 2	    1.06000	    0.94000;
	214	 1	 0.0	 0.0	 0.0	 0.0	 1	    1.00000	    0.00000	 345.0	 2	    1.06000	    0.94000;
	215	 1	 320.0	 153.0	 0.0	 0.0	 3	    1.00000	    0.00000	 345.0	 2	    1.06000	    0.94000;
	216	 1	 329.0	 32.3	 0.0	 0.0	 3	    1.00000	    0.00000	 345.0	 2	    1.06000	    0.94000;
	217	 1	 0.0	 0.0	 0.0	 0.0	 2	    1.00000	    0.00000	 345.0	 2	    1.06000	    0.94000;
	218	 1	 158.0	 30.0	 0.0	 0.0	 2	    1.00000	    0.00000	 345.0	 2	    1.06000	    0.94000;
	219	 1	 0.0	 0.0	 0.0	 0.0	 3	    1.00000	    0.00000	 345.0	 2	    1.06000	    0.94000;
	220	 1	 680.0	 103.0	 0.0	 0.0	 3	    1.00000	    0.00000	 345.0	 2	    1.06000	    0.94000;
	221	 1	 274.0	 115.0	 0.0	 0.0	 3	    1.00000	    0.00000	 345.0	 2	    1.06000	    0.94000;
	222	 1	 0.0	 0.0	 0.0	 0.0	 3	    1.00000	    0.00000	 345.0	 2	    1.06000	    0.94000;
	223	 1	 247.5	 84.6	 0.0	 0.0	 3	    1.00000	    0.00000	 345.0	 2	    1.06000	    0.94000;
	224	 1	 308.6	 -92.2	 0.0	 0.0	 3	    1.00000	    0.00000	 345.0	 2	    1.06000	    0.94000;
	225	 1	 224.0	 47.2	 0.0	 0.0	 2	    1.00000	    0.00000	 345.0	 2	    1.06000	    0.94000;
	226	 1	 139.0	 17.0	 0.0	 0.0	 2	    1.00000	    0.00000	 345.0	 2	    1.06000	    0.94000;
	227	 1	 281.0	 75.5	 0.0	 0.0	 2	    1.00000	    0.00000	 345.0	 2	    1.06000	    0.94000;
	228	 1	 206.0	 27.6	 0.0	 0.0	 3	    1.00000	    0.00000	 345.0	 2	    1.06000	    0.94000;
	229	 1	 283.5	 26.9	 0.0	 0.0	 3	    1.00000	    0.00000	 345.0	 2	    1.06000	    0.94000;
	230	 2	 0.0	 0.0	 0.0	 0.0	 2	    1.00000	    0.00000	 345.0	 2	    1.06000	    0.94000;
	231	 3	 9.2	 4.6	 0.0	 0.0	 1	    1.00000	    0.00000	 345.0	 2	    1.06000	    0.94000;
	232	 2	 0.0	 0.0	 0.0	 0.0	 1	    1.00000	    0.00000	 345.0	 2	    1.06000	    0.94000;
	233	 2	 0.0	 0.0	 0.0	 0.0	 3	    1.00000	    0.00000	 345.0	 2	    1.06000	    0.94000;
	234	 2	 0.0	 0.0	 0.0	 0.0	 3	    1.00000	    0.00000	 345.0	 2	    1.06000	    0.94000;
	235	 2	 0.0	 0.0	 0.0	 0.0	 3	    1.00000	    0.00000	 345.0	 2	    1.06000	    0.94000;
	236	 2	 0.0	 0.0	 0.0	 0.0	 3	    1.00000	    0.00000	 345.0	 2	    1.06000	    0.94000;
	237	 2	 0.0	 0.0	 0.0	 0.0	 2	    1.00000	    0.00000	 345.0	 2	    1.06000	    0.94000;
	238	 2	 0.0	 0.0	 0.0	 0.0	 3	    1.00000	    0.00000	 345.0	 2	    1.06000	    0.94000;
	239	 2	 1104.0	 250.0	 0.0	 0.0	 1	    1.00000	    0.00000	 345.0	 2	    1.06000	    0.94000;
];

%% generator data
%	bus	Pg	Qg	Qmax	Qmin	Vg	mBase	status	Pmax	Pmin
mpc.gen = [
7	500		0	180	0	1.05	100	1	500		0	;
8	500		0	180	0	1.05	100	1	500		0	;
9	1000	0	360	0	1.05	100	1	1000	0	;
10	500		0	180	0	1.05	100	1	500		0	;
11	500		0	180	0	1.05	100	1	500		0	;
131	 323.0	 100.0	 300.0	 -100.0	 1.0	 100.0	 1	 646.0	 0.0; % Nuke
133	 326.0	 125.0	 250.0	 0.0	 1.0	 100.0	 1	 652.0	 0.0; % Fossil
134	 254.0	 83.5	 167.0	 0.0	 1.0	 100.0	 1	 508.0	 0.0; % Fossil
135	 343.5	 100.0	 300.0	 -100.0	 1.0	 100.0	 1	 687.0	 0.0; % Fossil
136	 290.0	 120.0	 240.0	 0.0	 1.0	 100.0	 1	 580.0	 0.0; % Fossil
230	 520.0	 270.0	 400.0	 140.0	 1.0	 100.0	 1	 1040.0	 0.0; % Hydro
231	 323.0	 100.0	 300.0	 -100.0	 1.0	 100.0	 1	 646.0	 0.0; % Nuke
234	 254.0	 83.5	 167.0	 0.0	 1.0	 100.0	 1	 508.0	 0.0; % Fossil
235	 343.5	 100.0	 300.0	 -100.0	 1.0	 100.0	 1	 687.0	 0.0; % Nuke
236	 290.0	 120.0	 240.0	 0.0	 1.0	 100.0	 1	 580.0	 0.0; % Fossil
237	 282.0	 125.0	 250.0	 0.0	 1.0	 100.0	 1	 564.0	 0.0; % Fossil
238	 432.5	 75.0	 300.0	 -150.0	 1.0	 100.0	 1	 865.0	 0.0; % Nuke
];

%% branch data
%	fbus	tbus	r	x	b	rateA	rateB	rateC	ratio	angle	status	angmin	angmax	imax
mpc.branch = [
139	2	0.0002770083	0.0037124749	0.612422072	2339.827436	2339.827436	2339.827436	0	0	1	-60 60	3555	;
139	2	0.0002770083	0.0037124749	0.612422072	2339.827436	2339.827436	2339.827436	0	0	1	-60 60	3555	;
238	4	0.0002770083	0.0037124749	0.612422072	2339.827436	2339.827436	2339.827436	0	0	1	-60 60	3555	;
239	5	0.0002770083	0.0037124749	0.612422072	2339.827436	2339.827436	2339.827436	0	0	1	-60 60	3555	;
230	6	0.0002770083	0.0037124749	0.612422072	2339.827436	2339.827436	2339.827436	0	0	1	-60 60	3555	;
4	6	0.0002770083	0.0037124749	0.612422072	2339.827436	2339.827436	2339.827436	0	0	1	-60 60	3555	;
5	6	0.0002770083	0.0037124749	0.612422072	2339.827436	2339.827436	2339.827436	0	0	1	-60 60	3555	;
7	8	0.0020047562	0.018871969	0.303343744	179.5703675	179.5703675	179.5703675	0	0	1	-60 60	715	;
101	 102	 0.0035	 0.0411	 0.6987	 600.0	 600.0	 600.0	 0.0	 0.0	 1	 -60.0	 60.0	3555	;
101	 139	 0.001	 0.025	 0.75	 1000.0	 1000.0	 1000.0	 0.0	 0.0	 1	 -60.0	 60.0	3555	;
102	 103	 0.0013	 0.0151	 0.2572	 500.0	 500.0	 500.0	 0.0	 0.0	 1	 -60.0	 60.0	3555	;
102	 125	 0.007	 0.0086	 0.146	 500.0	 500.0	 500.0	 0.0	 0.0	 1	 -60.0	 60.0	3555	;
102	 130	 0.0	 0.0181	 0.0	 900.0	 900.0	 2500.0	 1.025	 0.0	 1	 -60.0	 60.0	3555	;
103	 104	 0.0013	 0.0213	 0.2214	 500.0	 500.0	 500.0	 0.0	 0.0	 1	 -60.0	 60.0	3555	;
103	 118	 0.0011	 0.0133	 0.2138	 500.0	 500.0	 500.0	 0.0	 0.0	 1	 -60.0	 60.0	3555	;
104	 105	 0.0008	 0.0128	 0.1342	 600.0	 600.0	 600.0	 0.0	 0.0	 1	 -60.0	 60.0	3555	;
104	 114	 0.0008	 0.0129	 0.1382	 500.0	 500.0	 500.0	 0.0	 0.0	 1	 -60.0	 60.0	3555	;
105	 106	 0.0002	 0.0026	 0.0434	 1200.0	 1200.0	 1200.0	 0.0	 0.0	 1	 -60.0	 60.0	3555	;
105	 108	 0.0008	 0.0112	 0.1476	 900.0	 900.0	 900.0	 0.0	 0.0	 1	 -60.0	 60.0	3555	;
106	 107	 0.0006	 0.0092	 0.113	 900.0	 900.0	 900.0	 0.0	 0.0	 1	 -60.0	 60.0	3555	;
106	 111	 0.0007	 0.0082	 0.1389	 480.0	 480.0	 480.0	 0.0	 0.0	 1	 -60.0	 60.0	3555	;
106	 131	 0.0	 0.025	 0.0	 1800.0	 1800.0	 1800.0	 1.07	 0.0	 1	 -60.0	 60.0	3555	;
107	 108	 0.0004	 0.0046	 0.078	 900.0	 900.0	 900.0	 0.0	 0.0	 1	 -60.0	 60.0	3555	;
108	 109	 0.0023	 0.0363	 0.3804	 900.0	 900.0	 900.0	 0.0	 0.0	 1	 -60.0	 60.0	3555	;
109	 139	 0.001	 0.025	 1.2	 900.0	 900.0	 900.0	 0.0	 0.0	 1	 -60.0	 60.0	3555	;
110	 111	 0.0004	 0.0043	 0.0729	 600.0	 600.0	 600.0	 0.0	 0.0	 1	 -60.0	 60.0	3555	;
110	 113	 0.0004	 0.0043	 0.0729	 600.0	 600.0	 600.0	 0.0	 0.0	 1	 -60.0	 60.0	3555	;
110	 132	 0.0	 0.02	 0.0	 900.0	 900.0	 2500.0	 1.07	 0.0	 1	 -60.0	 60.0	3555	;
112	 111	 0.0016	 0.0435	 0.0	 500.0	 500.0	 500.0	 1.006	 0.0	 1	 -60.0	 60.0	3555	;
112	 113	 0.0016	 0.0435	 0.0	 500.0	 500.0	 500.0	 1.006	 0.0	 1	 -60.0	 60.0	3555	;
113	 114	 0.0009	 0.0101	 0.1723	 600.0	 600.0	 600.0	 0.0	 0.0	 1	 -60.0	 60.0	3555	;
114	 115	 0.0018	 0.0217	 0.366	 600.0	 600.0	 600.0	 0.0	 0.0	 1	 -60.0	 60.0	3555	;
115	 116	 0.0009	 0.0094	 0.171	 600.0	 600.0	 600.0	 0.0	 0.0	 1	 -60.0	 60.0	3555	;
116	 117	 0.0007	 0.0089	 0.1342	 600.0	 600.0	 600.0	 0.0	 0.0	 1	 -60.0	 60.0	3555	;
116	 119	 0.0016	 0.0195	 0.304	 600.0	 600.0	 2500.0	 0.0	 0.0	 1	 -60.0	 60.0	3555	;
116	 121	 0.0008	 0.0135	 0.2548	 600.0	 600.0	 600.0	 0.0	 0.0	 1	 -60.0	 60.0	3555	;
116	 124	 0.0003	 0.0059	 0.068	 600.0	 600.0	 600.0	 0.0	 0.0	 1	 -60.0	 60.0	3555	;
117	 118	 0.0007	 0.0082	 0.1319	 600.0	 600.0	 600.0	 0.0	 0.0	 1	 -60.0	 60.0	3555	;
117	 127	 0.0013	 0.0173	 0.3216	 600.0	 600.0	 600.0	 0.0	 0.0	 1	 -60.0	 60.0	3555	;
119	 120	 0.0007	 0.0138	 0.0	 900.0	 900.0	 2500.0	 1.06	 0.0	 1	 -60.0	 60.0	3555	;
119	 133	 0.0007	 0.0142	 0.0	 900.0	 900.0	 2500.0	 1.07	 0.0	 1	 -60.0	 60.0	3555	;
120	 134	 0.0009	 0.018	 0.0	 900.0	 900.0	 2500.0	 1.009	 0.0	 1	 -60.0	 60.0	3555	;
121	 122	 0.0008	 0.014	 0.2565	 900.0	 900.0	 900.0	 0.0	 0.0	 1	 -60.0	 60.0	3555	;
122	 123	 0.0006	 0.0096	 0.1846	 600.0	 600.0	 600.0	 0.0	 0.0	 1	 -60.0	 60.0	3555	;
122	 135	 0.0	 0.0143	 0.0	 900.0	 900.0	 2500.0	 1.025	 0.0	 1	 -60.0	 60.0	3555	;
123	 124	 0.0022	 0.035	 0.361	 600.0	 600.0	 600.0	 0.0	 0.0	 1	 -60.0	 60.0	3555	;
123	 136	 0.0005	 0.0272	 0.0	 900.0	 900.0	 2500.0	 0.0	 0.0	 1	 -60.0	 60.0	3555	;
125	 126	 0.0032	 0.0323	 0.531	 600.0	 600.0	 600.0	 0.0	 0.0	 1	 -60.0	 60.0	3555	;
125	 137	 0.0006	 0.0232	 0.0	 900.0	 900.0	 2500.0	 1.025	 0.0	 1	 -60.0	 60.0	3555	;
126	 127	 0.0014	 0.0147	 0.2396	 600.0	 600.0	 600.0	 0.0	 0.0	 1	 -60.0	 60.0	3555	;
126	 128	 0.0043	 0.0474	 0.7802	 600.0	 600.0	 600.0	 0.0	 0.0	 1	 -60.0	 60.0	3555	;
126	 129	 0.0057	 0.0625	 1.029	 600.0	 600.0	 600.0	 0.0	 0.0	 1	 -60.0	 60.0	3555	;
128	 129	 0.0014	 0.0151	 0.249	 600.0	 600.0	 600.0	 0.0	 0.0	 1	 -60.0	 60.0	3555	;
129	 138	 0.0008	 0.0156	 0.0	 1200.0	 1200.0	 2500.0	 1.025	 0.0	 1	 -60.0	 60.0	3555	;
201	 202	 0.0035	 0.0411	 0.6987	 600.0	 600.0	 600.0	 0.0	 0.0	 1	 -60.0	 60.0	3555	;
201	 239	 0.001	 0.025	 0.75	 1000.0	 1000.0	 1000.0	 0.0	 0.0	 1	 -60.0	 60.0	3555	;
202	 203	 0.0013	 0.0151	 0.2572	 500.0	 500.0	 500.0	 0.0	 0.0	 1	 -60.0	 60.0	3555	;
202	 225	 0.007	 0.0086	 0.146	 500.0	 500.0	 500.0	 0.0	 0.0	 1	 -60.0	 60.0	3555	;
202	 230	 0.0	 0.0181	 0.0	 900.0	 900.0	 2500.0	 1.025	 0.0	 1	 -60.0	 60.0	3555	;
203	 204	 0.0013	 0.0213	 0.2214	 500.0	 500.0	 500.0	 0.0	 0.0	 1	 -60.0	 60.0	3555	;
203	 218	 0.0011	 0.0133	 0.2138	 500.0	 500.0	 500.0	 0.0	 0.0	 1	 -60.0	 60.0	3555	;
204	 205	 0.0008	 0.0128	 0.1342	 600.0	 600.0	 600.0	 0.0	 0.0	 1	 -60.0	 60.0	3555	;
204	 214	 0.0008	 0.0129	 0.1382	 500.0	 500.0	 500.0	 0.0	 0.0	 1	 -60.0	 60.0	3555	;
205	 206	 0.0002	 0.0026	 0.0434	 1200.0	 1200.0	 1200.0	 0.0	 0.0	 1	 -60.0	 60.0	3555	;
205	 208	 0.0008	 0.0112	 0.1476	 900.0	 900.0	 900.0	 0.0	 0.0	 1	 -60.0	 60.0	3555	;
206	 207	 0.0006	 0.0092	 0.113	 900.0	 900.0	 900.0	 0.0	 0.0	 1	 -60.0	 60.0	3555	;
206	 211	 0.0007	 0.0082	 0.1389	 480.0	 480.0	 480.0	 0.0	 0.0	 1	 -60.0	 60.0	3555	;
206	 231	 0.0	 0.025	 0.0	 1800.0	 1800.0	 1800.0	 1.07	 0.0	 1	 -60.0	 60.0	3555	;
207	 208	 0.0004	 0.0046	 0.078	 900.0	 900.0	 900.0	 0.0	 0.0	 1	 -60.0	 60.0	3555	;
208	 209	 0.0023	 0.0363	 0.3804	 900.0	 900.0	 900.0	 0.0	 0.0	 1	 -60.0	 60.0	3555	;
209	 239	 0.001	 0.025	 1.2	 900.0	 900.0	 900.0	 0.0	 0.0	 1	 -60.0	 60.0	3555	;
210	 211	 0.0004	 0.0043	 0.0729	 600.0	 600.0	 600.0	 0.0	 0.0	 1	 -60.0	 60.0	3555	;
210	 213	 0.0004	 0.0043	 0.0729	 600.0	 600.0	 600.0	 0.0	 0.0	 1	 -60.0	 60.0	3555	;
210	 232	 0.0	 0.02	 0.0	 900.0	 900.0	 2500.0	 1.07	 0.0	 1	 -60.0	 60.0	3555	;
212	 211	 0.0016	 0.0435	 0.0	 500.0	 500.0	 500.0	 1.006	 0.0	 1	 -60.0	 60.0	3555	;
212	 213	 0.0016	 0.0435	 0.0	 500.0	 500.0	 500.0	 1.006	 0.0	 1	 -60.0	 60.0	3555	;
213	 214	 0.0009	 0.0101	 0.1723	 600.0	 600.0	 600.0	 0.0	 0.0	 1	 -60.0	 60.0	3555	;
214	 215	 0.0018	 0.0217	 0.366	 600.0	 600.0	 600.0	 0.0	 0.0	 1	 -60.0	 60.0	3555	;
215	 216	 0.0009	 0.0094	 0.171	 600.0	 600.0	 600.0	 0.0	 0.0	 1	 -60.0	 60.0	3555	;
216	 217	 0.0007	 0.0089	 0.1342	 600.0	 600.0	 600.0	 0.0	 0.0	 1	 -60.0	 60.0	3555	;
216	 219	 0.0016	 0.0195	 0.304	 600.0	 600.0	 2500.0	 0.0	 0.0	 1	 -60.0	 60.0	3555	;
216	 221	 0.0008	 0.0135	 0.2548	 600.0	 600.0	 600.0	 0.0	 0.0	 1	 -60.0	 60.0	3555	;
216	 224	 0.0003	 0.0059	 0.068	 600.0	 600.0	 600.0	 0.0	 0.0	 1	 -60.0	 60.0	3555	;
217	 218	 0.0007	 0.0082	 0.1319	 600.0	 600.0	 600.0	 0.0	 0.0	 1	 -60.0	 60.0	3555	;
217	 227	 0.0013	 0.0173	 0.3216	 600.0	 600.0	 600.0	 0.0	 0.0	 1	 -60.0	 60.0	3555	;
219	 220	 0.0007	 0.0138	 0.0	 900.0	 900.0	 2500.0	 1.06	 0.0	 1	 -60.0	 60.0	3555	;
219	 233	 0.0007	 0.0142	 0.0	 900.0	 900.0	 2500.0	 1.07	 0.0	 1	 -60.0	 60.0	3555	;
220	 234	 0.0009	 0.018	 0.0	 900.0	 900.0	 2500.0	 1.009	 0.0	 1	 -60.0	 60.0	3555	;
221	 222	 0.0008	 0.014	 0.2565	 900.0	 900.0	 900.0	 0.0	 0.0	 1	 -60.0	 60.0	3555	;
222	 223	 0.0006	 0.0096	 0.1846	 600.0	 600.0	 600.0	 0.0	 0.0	 1	 -60.0	 60.0	3555	;
222	 235	 0.0	 0.0143	 0.0	 900.0	 900.0	 2500.0	 1.025	 0.0	 1	 -60.0	 60.0	3555	;
223	 224	 0.0022	 0.035	 0.361	 600.0	 600.0	 600.0	 0.0	 0.0	 1	 -60.0	 60.0	3555	;
223	 236	 0.0005	 0.0272	 0.0	 900.0	 900.0	 2500.0	 0.0	 0.0	 1	 -60.0	 60.0	3555	;
225	 226	 0.0032	 0.0323	 0.531	 600.0	 600.0	 600.0	 0.0	 0.0	 1	 -60.0	 60.0	3555	;
225	 237	 0.0006	 0.0232	 0.0	 900.0	 900.0	 2500.0	 1.025	 0.0	 1	 -60.0	 60.0	3555	;
226	 227	 0.0014	 0.0147	 0.2396	 600.0	 600.0	 600.0	 0.0	 0.0	 1	 -60.0	 60.0	3555	;
226	 228	 0.0043	 0.0474	 0.7802	 600.0	 600.0	 600.0	 0.0	 0.0	 1	 -60.0	 60.0	3555	;
226	 229	 0.0057	 0.0625	 1.029	 600.0	 600.0	 600.0	 0.0	 0.0	 1	 -60.0	 60.0	3555	;
228	 229	 0.0014	 0.0151	 0.249	 600.0	 600.0	 600.0	 0.0	 0.0	 1	 -60.0	 60.0	3555	;
229	 238	 0.0008	 0.0156	 0.0	 1200.0	 1200.0	 2500.0	 1.025	 0.0	 1	 -60.0	 60.0	3555	;
];

%% dc grid topology
%column_names% dcpoles
mpc.dcpol=2;
% numbers of poles (1=monopolar grid, 2=bipolar grid)
%% bus data
%column_names%  busdc_i    grid    Pdc     Vdc   basekVdc    Vdcmax   Vdcmin   Cdc  area
mpc.busdc = [
1	1	0	1	200	1.1	0.9	0	1	;
2	1	0	1	200	1.1	0.9	0	1	;
3	1	0	1	400	1.1	0.9	0	1	;
4	1	0	1	400	1.1	0.9	0	1	;
5	1	0	1	400	1.1	0.9	0	1	;
6	1	0	1	400	1.1	0.9	0	1	;
7	1	0	1	400	1.1	0.9	0	1	;
8	1	0	1	400	1.1	0.9	0	1	;
9	1	0	1	400	1.1	0.9	0	1	;
10	1	0	1	400	1.1	0.9	0	1	;
11	1	0	1	200	1.1	0.9	0	1	;
12	1	0	1	200	1.1	0.9	0	1	;
13	1	0	1	200	1.1	0.9	0	1	;
14	1	0	1	200	1.1	0.9	0	1	;
15	1	0	1	200	1.1	0.9	0	1	;
];

%% converters
%column_names%  busdc_i	busac_i	type_dc	type_ac	P_g	Q_g	islcc	Vtar	rtf	xtf	transformer	tm	bf	filter	rc	xc	reactor	basekVac	Vmmax	Vmmin	Imax	status	LossA	LossB	LossCrec	LossCinv	droop	Pdcset	Vdcset	dVdcset	Pacmax	Pacmin	Qacmax	Qacmin	ratio	index	Pacrated	Qacrated	conv_id	type_link control_pdc control_vdc control_vdc_mode
mpc.convdc = [
1	2	1	1	800	0	0	1	7.13994E-05	0.00249898	0	1	13.608978	0	4.16435E-05	0.001249306	0	380	1.1	0.9	1215.474251	1	1.103	0.887	2.885	2.885	0.005	800	1	0	800	-800	800	-800	0	1	800	800	1	2	0	1	3	;
2	7	1	1	800	0	0	1	7.13994E-05	0.00249898	0	1	13.608978	0	4.16435E-05	0.001249306	0	145	1.1	0.9	3185.380796	1	1.103	0.887	2.885	2.885	0.005	800	1	0	800	-800	800	-800	0	2	800	800	2	2	1	0	2	;
11	5	1	1	800	0	0	1	7.13994E-05	0.00249898	0	1	13.608978	0	4.16435E-05	0.001249306	0	380	1.1	0.9	1215.474251	1	1.103	0.887	2.885	2.885	0.005	800	1	0	800	-800	800	-800	0	3	800	800	3	2	1	1	1	;
12	6	1	1	1200	0	0	1	7.13994E-05	0.00249898	0	1	13.608978	0	4.16435E-05	0.001249306	0	380	1.1	0.9	1823.211376	1	1.103	0.887	2.885	2.885	0.005	1200	1	0	1200	-1200	1200	-1200	0	4	1200	1200	4	2	1	1	1	;
14	10	1	1	800	0	0	1	7.13994E-05	0.00249898	0	1	13.608978	0	4.16435E-05	0.001249306	0	380	1.1	0.9	1215.474251	1	1.103	0.887	2.885	2.885	0.005	800	1	0	800	-800	800	-800	0	1	800	800	5	2	1	0	2	;
15	11	1	1	800	0	0	1	7.13994E-05	0.00249898	0	1	13.608978	0	4.16435E-05	0.001249306	0	145	1.1	0.9	3185.380796	1	1.103	0.887	2.885	2.885	0.005	800	1	0	800	-800	800	-800	0	6	800	800	6	2	1	0	2	;
3	2	1	1	2400	0	0	1	7.13994E-05	0.00249898	0	1	13.608978	0	4.16435E-05	0.001249306	0	380	1.1	0.9	3646.422753	1	1.103	0.887	2.885	2.885	0.005	2400	1	0	2400	-2400	2400	-2400	0	7	2400	2400	7	2	1	1	1	;
7	4	1	1	2400	0	0	1	7.13994E-05	0.00249898	0	1	13.608978	0	4.16435E-05	0.001249306	0	380	1.1	0.9	3646.422753	1	1.103	0.887	2.885	2.885	0.005	2400	1	0	2400	-2400	2400	-2400	0	8	2400	2400	8	2	1	1	1	;
10	5	1	1	2400	0	0	1	7.13994E-05	0.00249898	0	1	13.608978	0	4.16435E-05	0.001249306	0	145	1.1	0.9	9556.142387	1	1.103	0.887	2.885	2.885	0.005	2400	1	0	2400	-2400	2400	-2400	0	9	2400	2400	9	2	1	1	1	;
4	8	1	1	800	0	0	1	7.13994E-05	0.00249898	0	1	13.608978	0	4.16435E-05	0.001249306	0	380	1.1	0.9	1215.474251	1	1.103	0.887	2.885	2.885	0.005	800	1	0	800	-800	800	-800	0	10	800	800	10	2	1	0	2	;
5	9	1	1	1600	0	0	1	7.13994E-05	0.00249898	0	1	13.608978	0	4.16435E-05	0.001249306	0	145	1.1	0.9	6370.761591	1	1.103	0.887	2.885	2.885	0.005	1600	1	0	1600	-1600	1600	-1600	0	11	1600	1600	11	2	1	0	2	;
];

%% dc branches
%column_names%  fbusdc  tbusdc  r        l   c   rateA   rateB   rateC   status dcpoles
mpc.branchdc = [
1	2	0.00475	0	0	392.4	392.4	392.4	1	1	;
3	4	0.00475	0	0	453	453	453	1	2	;
3	6	0.01425	0	0	700	700	700	1	2	;
3	7	0.0114	0	0	700	700	700	1	2	;
3	7	0.0114	0	0	700	700	700	1	2	;
4	5	0.007125	0	0	453	453	453	1	2	;
6	7	0.0057	0	0	700	700	700	1	2	;
8	9	0.00012	0	0	1000	1000	1000	1	1	;
5	9	0.00475	0	0	453	453	453	1	2	;
6	10	0.007125	0	0	453	453	453	1	2	;
6	10	0.007125	0	0	453	453	453	1	2	;
11	12	0.00475	0	0	392.4	392.4	392.4	1	1	;
12	13	0.0114	0	0	700	700	700	1	1	;
13	15	0.0114	0	0	700	700	700	1	1	;
14	15	0.01425	0	0	700	700	700	1	1	;
7	8	0.00012	0	0	1000	1000	1000	1	1	;
9	14	0.00012	0	0	1000	1000	1000	1	1	;
];

%% generator cost data
%	2	startup	shutdown	n	c(n-1)	...	c0
mpc.gencost = [
	2	0	0	2		   0.1		0;
	2	0	0	2		   0.1		0;
	2	0	0	2		   0.1		0;
	2	0	0	2		   0.1		0;
	2	0	0	2		   0.1		0;
	2	0	0	2	  14.707625	   0; % Nuke
	2	0	0	2	  34.844643	   0; % Fossil
	2	0	0	2	  24.652994	   0; % Fossil
	2	0	0	2	  32.306483	   0; % Fossil
	2	0	0	2	  18.157477	   0; % Fossil
	2	0	0	2	   6.724778	   0; % Hydro
	2	0	0	2	  14.707625	   0; % Nuke
	2	0	0	2	  24.652994	   0; % Fossil
	2	0	0	2	  32.306483	   0; % Nuke
	2	0	0	2	  18.157477	   0; % Fossil
	2	0	0	2	  31.550181	   0; % Fossil
	2	0	0	2	  22.503168	   0; % Nuke
];

%% generator data
%column_names%	type
mpc.othergen = [
1	;
1	;
1	;
1	;
2	;
2	;
2	;
2	;
];